27
Anatoxin-a
O          2.83050       -1.12368        0.32597
N          3.59902        2.49427        1.66662
C          4.08094        1.44427        0.74101
C          2.96682        1.17762       -0.23851
C          4.05679        3.76557        1.08318
C          5.40052        1.99704        0.16646
C          2.23135       -0.11570       -0.04661
C          5.47818        3.43719        0.66358
C          2.54782        2.04615       -1.18007
C          3.17078        4.27681       -0.06855
C          3.08223        3.43958       -1.35372
C          0.73692       -0.13636       -0.27699
H          4.07675        2.35011        2.55559
H          4.31359        0.53716        1.31155
H          4.05307        4.53063        1.86693
H          5.44992        1.95150       -0.92612
H          6.26580        1.43910        0.54360
H          6.13826        3.48102        1.54066
H          5.87963        4.12712       -0.08461
H          1.73588        1.78815       -1.85311
H          3.54470        5.26864       -0.35850
H          2.15223        4.43964        0.31350
H          2.40466        3.96725       -2.03854
H          4.04425        3.41053       -1.87710
H          0.32610       -1.08173        0.08784
H          0.50837       -0.05114       -1.34109
H          0.26322        0.67545        0.28471
