45
Lactose
O          1.09024       -0.10069       -0.36762
O          2.51688        1.09800        1.04321
O          0.73760       -3.76578       -1.13198
O          0.07688       -0.34381       -3.17745
O          4.84081        0.06672       -0.42203
O          2.12925        1.50411       -2.48859
O          1.71832       -2.48334       -4.43264
O          3.21337        3.86938       -1.36181
O          1.18874       -5.00027       -3.01659
O          1.01414       -3.86063        1.76894
O          0.36296        2.89132        1.53781
C          0.63584       -1.32121       -1.00885
C          2.42805        0.00302        0.12460
C          0.94251       -1.28823       -2.51887
C          1.07902       -2.63388       -0.32480
C          3.51893        0.12314       -0.97470
C          3.34172        1.44861       -1.72486
C          0.88895       -2.62099       -3.25889
C          3.43401        2.60941       -0.72529
C          2.50182        2.43034        0.48754
C          1.41882       -3.75545       -2.37563
C          0.38844       -2.80044        1.04322
C          1.05876        2.92400        0.28923
H          0.64180        0.34640       -3.58073
H          4.99366       -0.83689       -0.09177
H          1.37816        1.34349       -1.88248
H          1.32593       -1.76592       -4.96304
H          3.50154        3.79289       -2.28994
H          1.82349       -5.62033       -2.62397
H          0.41426       -4.10165        2.49428
H          0.60249        2.04664        1.95554
H         -0.45741       -1.26876       -0.93060
H          2.65911       -0.86745        0.74661
H          1.93690       -0.89519       -2.69576
H          2.16145       -2.66566       -0.16935
H          3.46751       -0.71527       -1.66559
H          4.14878        1.56375       -2.45865
H         -0.12750       -2.84063       -3.60963
H          4.46245        2.62628       -0.34678
H          2.90743        3.06262        1.28857
H          2.50204       -3.65626       -2.22424
H          0.47297       -1.89558        1.65295
H         -0.66844       -3.05694        0.91638
H          1.02917        3.95094       -0.08597
H          0.48455        2.29841       -0.39516
