8
Ammonium Thiocyanate
S          0.43848       -1.84435        0.69097
N         -0.96661        0.55201       -0.18080
N          2.46325        0.07096       -0.09873
C          1.79294       -0.80801        0.25623
H         -1.49091        1.16692        0.43694
H         -1.43320        0.32337       -1.05765
H         -0.78628       -0.36085        0.30869
H         -0.01768        0.89995       -0.35565
