15
Diammonium Dioxidomolybdenum
Mo        -1.43533        0.01396       -2.32664
O         -2.13800       -0.55035       -0.52119
O         -1.70024        1.94819       -1.81578
O         -1.19695       -1.71467       -2.77672
O          0.24680        0.07001       -1.68989
N          0.73858       -1.69786        1.04182
N          0.50621        1.74757        0.78295
H          0.60200       -0.95050        1.75521
H         -0.06492       -1.70703        0.37927
H          0.79842       -2.62668        1.52038
H          1.62186       -1.52761        0.51198
H          0.43813        2.54226        0.11211
H         -0.35966        1.16572        0.72249
H          0.60106        2.11976        1.75432
H          1.34205        1.16725        0.54968
