8
Lead Zirconate Titanate
Pb         2.26013       -0.66290       -0.71447
Zr        -0.44767        0.43206       -2.92243
Ti         0.56563        2.56672       -0.87689
O         -0.84284       -2.67405       -1.90487
O         -0.95495        2.97176        1.95642
O         -1.44484        0.03998        0.18963
O         -0.05483       -2.87915        1.48023
O          0.91937        0.20559        2.79240
