17
Uranyl Acetate
U          0.53976       -0.53390       -0.32700
O          0.10333       -0.21658       -2.44535
O          0.35547       -1.79601        1.43610
C         -0.54659       -0.91883       -3.36916
C         -0.33823       -2.92626        1.17342
O          0.16190        1.26360        0.44850
O          2.49960       -0.17222       -0.24197
O         -1.06142       -1.99805       -3.10186
O         -0.76631       -3.11098        0.04044
C         -0.61657       -0.32932       -4.74213
C         -0.64550       -3.93215        2.23236
H         -0.08598        0.65394       -4.75382
H         -1.67019       -0.15050       -5.03244
H         -0.11877       -0.99379       -5.47479
H         -0.29057       -3.57615        3.21981
H         -0.15817       -4.89422        1.97786
H         -1.74648       -4.09501        2.28927
